# STR package for  MODFLOW-2005, generated by Flopy.
50 3 2 0 1 86400.0 53 53 
        50         1         1  # stress period 1
1 26 1 1 1 0.0 99.5 11.5600004196167 98.0 99.0 
1 26 2 1 2 0.0 99.19387817382812 11.5600004196167 97.69387817382812 98.69387817382812 
1 26 3 1 3 0.0 98.88775634765625 11.5600004196167 97.38775634765625 98.38775634765625 
1 26 4 1 4 0.0 98.58163452148438 11.5600004196167 97.08163452148438 98.08163452148438 
1 26 5 1 5 0.0 98.2755126953125 11.5600004196167 96.7755126953125 97.7755126953125 
1 26 6 1 6 0.0 97.96939086914062 11.5600004196167 96.46939086914062 97.46939086914062 
1 26 7 1 7 0.0 97.66326904296875 11.5600004196167 96.16326904296875 97.16326904296875 
1 26 8 1 8 0.0 97.35713958740234 11.5600004196167 95.85713958740234 96.85713958740234 
1 26 9 1 9 0.0 97.05101776123047 11.5600004196167 95.55101776123047 96.55101776123047 
1 26 10 1 10 0.0 96.7448959350586 11.5600004196167 95.2448959350586 96.2448959350586 
1 26 11 1 11 0.0 96.43877410888672 11.5600004196167 94.93877410888672 95.93877410888672 
1 26 12 1 12 0.0 96.13265228271484 11.5600004196167 94.63265228271484 95.63265228271484 
1 26 13 1 13 0.0 95.82653045654297 11.5600004196167 94.32653045654297 95.32653045654297 
1 26 14 1 14 0.0 95.5204086303711 11.5600004196167 94.0204086303711 95.0204086303711 
1 26 15 1 15 0.0 95.21428680419922 11.5600004196167 93.71428680419922 94.71428680419922 
1 26 16 1 16 0.0 94.90816497802734 11.5600004196167 93.40816497802734 94.40816497802734 
1 26 17 1 17 0.0 94.60204315185547 11.5600004196167 93.10204315185547 94.10204315185547 
1 26 18 1 18 0.0 94.2959213256836 11.5600004196167 92.7959213256836 93.7959213256836 
1 26 19 1 19 0.0 93.98979949951172 11.5600004196167 92.48979949951172 93.48979949951172 
1 26 20 1 20 0.0 93.68367004394531 11.5600004196167 92.18367004394531 93.18367004394531 
1 26 21 1 21 0.0 93.37754821777344 11.5600004196167 91.87754821777344 92.87754821777344 
1 26 22 1 22 0.0 93.07142639160156 11.5600004196167 91.57142639160156 92.57142639160156 
1 26 23 1 23 0.0 92.76530456542969 11.5600004196167 91.26530456542969 92.26530456542969 
1 26 24 1 24 0.0 92.45918273925781 11.5600004196167 90.95918273925781 91.95918273925781 
1 26 25 2 1 0.0 92.15306091308594 11.5600004196167 90.65306091308594 91.65306091308594 
1 26 26 3 1 0.0 91.84693908691406 11.5600004196167 90.34693908691406 91.34693908691406 
1 26 27 3 2 -1.0 91.54081726074219 11.5600004196167 90.04081726074219 91.04081726074219 
1 26 28 3 3 0.0 91.23469543457031 11.5600004196167 89.73469543457031 90.73469543457031 
1 26 29 3 4 0.0 90.92857360839844 11.5600004196167 89.42857360839844 90.42857360839844 
1 26 30 3 5 0.0 90.62245178222656 11.5600004196167 89.12245178222656 90.12245178222656 
1 26 31 3 6 0.0 90.31632995605469 11.5600004196167 88.81632995605469 89.81632995605469 
1 26 32 3 7 0.0 90.01020050048828 11.5600004196167 88.51020050048828 89.51020050048828 
1 26 33 3 8 0.0 89.7040786743164 11.5600004196167 88.2040786743164 89.2040786743164 
1 26 34 3 9 0.0 89.39795684814453 11.5600004196167 87.89795684814453 88.89795684814453 
1 26 35 3 10 0.0 89.09183502197266 11.5600004196167 87.59183502197266 88.59183502197266 
1 26 36 3 11 0.0 88.78571319580078 11.5600004196167 87.28571319580078 88.28571319580078 
1 26 37 3 12 0.0 88.4795913696289 11.5600004196167 86.9795913696289 87.9795913696289 
1 26 38 3 13 0.0 88.17346954345703 11.5600004196167 86.67346954345703 87.67346954345703 
1 26 39 3 14 0.0 87.86734771728516 11.5600004196167 86.36734771728516 87.36734771728516 
1 26 40 3 15 0.0 87.56122589111328 11.5600004196167 86.06122589111328 87.06122589111328 
1 26 41 3 16 0.0 87.2551040649414 11.5600004196167 85.7551040649414 86.7551040649414 
1 26 42 3 17 0.0 86.94898223876953 11.5600004196167 85.44898223876953 86.44898223876953 
1 26 43 3 18 0.0 86.64286041259766 11.5600004196167 85.14286041259766 86.14286041259766 
1 26 44 3 19 0.0 86.33673095703125 11.5600004196167 84.83673095703125 85.83673095703125 
1 26 45 3 20 0.0 86.03060913085938 11.5600004196167 84.53060913085938 85.53060913085938 
1 26 46 3 21 0.0 85.7244873046875 11.5600004196167 84.2244873046875 85.2244873046875 
1 26 47 3 22 0.0 85.41836547851562 11.5600004196167 83.91836547851562 84.91836547851562 
1 26 48 3 23 0.0 85.11224365234375 11.5600004196167 83.61224365234375 84.61224365234375 
1 26 49 3 24 0.0 84.80612182617188 11.5600004196167 83.30612182617188 84.30612182617188 
1 26 50 3 25 0.0 84.5 11.5600004196167 83.0 84.0 
1.0 0.0010000000474974513 0.03999999910593033 
1.0 0.0010000000474974513 0.03999999910593033 
1.0 0.0010000000474974513 0.03999999910593033 
1.0 0.0010000000474974513 0.03999999910593033 
1.0 0.0010000000474974513 0.03999999910593033 
1.0 0.0010000000474974513 0.03999999910593033 
1.0 0.0010000000474974513 0.03999999910593033 
1.0 0.0010000000474974513 0.03999999910593033 
1.0 0.0010000000474974513 0.03999999910593033 
1.0 0.0010000000474974513 0.03999999910593033 
1.0 0.0010000000474974513 0.03999999910593033 
1.0 0.0010000000474974513 0.03999999910593033 
1.0 0.0010000000474974513 0.03999999910593033 
1.0 0.0010000000474974513 0.03999999910593033 
1.0 0.0010000000474974513 0.03999999910593033 
1.0 0.0010000000474974513 0.03999999910593033 
1.0 0.0010000000474974513 0.03999999910593033 
1.0 0.0010000000474974513 0.03999999910593033 
1.0 0.0010000000474974513 0.03999999910593033 
1.0 0.0010000000474974513 0.03999999910593033 
1.0 0.0010000000474974513 0.03999999910593033 
1.0 0.0010000000474974513 0.03999999910593033 
1.0 0.0010000000474974513 0.03999999910593033 
1.0 0.0010000000474974513 0.03999999910593033 
1.0 0.0010000000474974513 0.03999999910593033 
1.0 0.0010000000474974513 0.03999999910593033 
1.0 0.0010000000474974513 0.03999999910593033 
1.0 0.0010000000474974513 0.03999999910593033 
1.0 0.0010000000474974513 0.03999999910593033 
1.0 0.0010000000474974513 0.03999999910593033 
1.0 0.0010000000474974513 0.03999999910593033 
1.0 0.0010000000474974513 0.03999999910593033 
1.0 0.0010000000474974513 0.03999999910593033 
1.0 0.0010000000474974513 0.03999999910593033 
1.0 0.0010000000474974513 0.03999999910593033 
1.0 0.0010000000474974513 0.03999999910593033 
1.0 0.0010000000474974513 0.03999999910593033 
1.0 0.0010000000474974513 0.03999999910593033 
1.0 0.0010000000474974513 0.03999999910593033 
1.0 0.0010000000474974513 0.03999999910593033 
1.0 0.0010000000474974513 0.03999999910593033 
1.0 0.0010000000474974513 0.03999999910593033 
1.0 0.0010000000474974513 0.03999999910593033 
1.0 0.0010000000474974513 0.03999999910593033 
1.0 0.0010000000474974513 0.03999999910593033 
1.0 0.0010000000474974513 0.03999999910593033 
1.0 0.0010000000474974513 0.03999999910593033 
1.0 0.0010000000474974513 0.03999999910593033 
1.0 0.0010000000474974513 0.03999999910593033 
1.0 0.0010000000474974513 0.03999999910593033 
0 0 
0 0 
1 2 
